test/test_files/validation_tests/case1951rte_resqlim.m
function mpc = case1951rte_resqlim
%CASE1951RTE_RESQLIM

%% MATPOWER Case Format : Version 2
mpc.version = '2';

%%-----  Power Flow Data  -----%%
%% system MVA base
mpc.baseMVA = 100;

%% bus data
%	bus_i	type	Pd	Qd	Gs	Bs	area	Vm	Va	baseKV	zone	Vmax	Vmin
mpc.bus = [
	1	1	36.4	19.5	0	0	1	1.04154429	-18.7551454	225	1	1.08889	0.888889;
	2	1	0	0	0	0	1	1.08105808	-5.17675396	380	1	1.10263	1.04841;
	3	1	245.2	16.4	0	0	1	1.06558763	-23.6205654	225	1	1.08444	1.00444;
	4	1	0	0	0	0	1	1.07514411	-8.37293565	150	1	1.10667	0.9;
	5	1	51.8	13.5	0	0	1	1.0700516	-11.7034655	225	1	1.08889	0.933333;
	6	1	36.6	11.6	0	0	1	1.06759654	-12.7501238	225	1	1.08889	0.933333;
	7	1	0	0	0	0	1	1.08496	-10.6502959	380	1	1.10526	1.03947;
	8	1	0	0	0	0	1	1.0803236	-12.003236	380	1	1.10526	1.03947;
	9	1	0	0	0	0	1	1.07710814	-28.5361268	225	1	1.09035	1.00444;
	10	1	193.4	48.9	0	0	1	1.03571747	-15.9308508	225	1	1.08889	0.933333;
	11	1	57.7	14.6	0	0	1	1.0628089	-29.5266585	225	1	1.08889	1.00444;
	12	1	27.8	24.4	0	0	1	1.07583489	-25.120224	225	1	1.08889	1.00444;
	13	1	177.5	52.5	0	0	1	1.06259596	-29.5286021	225	1	1.08889	1.00444;
	14	1	75.8	7.3	0	0	1	1.05843405	-15.7220027	225	1	1.08252	0.95;
	15	1	0	0	0	0	1	1.08790536	-14.1139914	225	1	1.08889	1.00444;
	16	1	0	0	0	0	1	1.08790578	-14.1139942	225	1	1.08889	1.00444;
	17	1	66.2	0.9	0	0	1	1.05908909	-15.5947421	225	1	1.08889	0.888889;
	18	1	12.3	7.1	0	0	1	1.07267207	-3.32238254	225	1	1.09633	0.986667;
	19	1	67.9	23	0	0	1	1.0471034	-26.5128989	225	1	1.08889	1.00444;
	20	1	29.2	7.2	0	0	1	1.04716867	-26.5100928	225	1	1.08889	1.00444;
	21	1	77.8	31.2	0	0	1	1.06070641	-26.4616796	225	1	1.08889	1.00444;
	22	1	105.6	22.8	0	0	1	1.04605747	-11.4363758	225	1	1.08889	0.986667;
	23	1	41.1	2.7	0	0	1	1.04573768	-15.6046893	225	1	1.08889	0.888889;
	25	1	56.2	8.1	0	0	1	1.05852702	-29.2253894	225	1	1.08444	1.00889;
	26	1	29.3	6.4	0	0	1	1.05886148	-29.1776891	225	1	1.08444	1.00889;
	27	1	102.1	38	0	0	1	1.04965375	-14.6467989	225	1	1.08889	0.933333;
	28	1	172.1	40	0	0	1	1.0656523	-25.8689244	225	1	1.08889	1.00444;
	29	1	0	0	0	0	1	1.08114225	-5.16499044	380	1	1.10526	1.04842;
	30	1	0	0	0	0	1	1.08118524	-5.16903417	380	1	1.10526	1.04842;
	31	1	36.2	31.7	0	0	1	1.06369311	-10.0195786	225	1	1.08444	1.00889;
	33	1	133.2	20.1	0	0	1	1.06631603	-17.6721931	225	1	1.08444	1.00889;
	34	1	89.4	29.6	0	0	1	1.02442019	-27.4165052	225	1	1.08889	1.00444;
	2013	1	0	0	0	0	1	1.06401095	-29.3445953	225	1	1.08889	1.00444;
	35	1	10.3	-0.4	0	0	1	1.06616372	-14.146649	150	1	1.08	0.966667;
	36	1	22.3	6.7	0	80	1	1.04288304	-21.0585085	225	1	1.09212	1;
	37	1	0	0	0	0	1	1.0513056	-17.7650023	380	1	1.10526	1.04785;
	38	1	144.2	18.9	0	0	1	1.01358602	-15.7493192	225	1	1.08889	0.986667;
	39	1	117.8	31.5	0	0	1	1.06018274	-15.3907637	225	1	1.08889	0.968889;
	40	1	194.8	53.6	0	0	1	1.07696447	-12.214274	380	1	1.10526	1;
	41	1	64.7	12.6	0	0	1	1.05174087	-14.0930447	225	1	1.08889	0.933333;
	42	1	44.6	15.6	0	0	1	1.05629715	-13.9271179	225	1	1.08889	0.888889;
	43	1	46.9	11.7	0	0	1	1.05644891	-13.9324464	225	1	1.08889	0.888889;
	44	1	381.3	62.5	0	0	1	1.06909962	-32.0955328	225	1	1.08496	1.00444;
	45	1	161.5	-38.5	0	0	1	1.06612722	-28.5721228	225	1	1.08889	1.00444;
	46	1	0	0	0	0	1	1.10664609	-18.072141	150	1	1.10843	0.9;
	47	1	0	0	0	0	1	1.05352577	-26.656572	225	1	1.08889	1.00444;
	48	1	0	0	0	0	1	1.05352555	-26.6565708	225	1	1.08889	1.00444;
	49	1	123.5	43.4	0	0	1	1.05352429	-26.6565639	225	1	1.08889	1.00444;
	50	1	10	3.7	0	0	1	1.0657382	-26.4389314	225	1	1.08889	1.00444;
	51	1	0	0	0	0	1	1.05732677	-20.4833181	225	1	1.08889	1;
	52	1	74.6	28	0	0	1	1.04134048	-16.3166646	225	1	1.08889	0.888889;
	53	1	160.2	38.2	0	0	1	1.06972558	-8.49575771	225	1	1.08889	0.968889;
	54	1	0	0	0	0	1	1.08889767	-4.63657942	380	1	1.10526	1;
	55	1	31	11	0	0	1	1.06417472	-16.1152564	225	1	1.08444	1.00889;
	56	1	14.7	-1	0	0	1	1.06450447	-16.0996841	225	1	1.08444	1.00889;
	1827	1	201.2	11.7	0	0	1	1.05482224	-30.9974622	225	1	1.08889	1.00444;
	57	1	57	3	0	0	1	1.08019859	-17.7332658	225	1	1.08945	0.933333;
	58	1	0	0	0	0	1	1.10588056	-18.1778396	150	1	1.10862	0.9;
	59	1	55.4	19.7	0	0	1	1.07767774	-15.7938737	225	1	1.08444	1.00889;
	60	1	55.7	41.6	0	0	1	1.07733545	-15.790722	225	1	1.08444	1.00889;
	61	1	0	0	0	0	1	1.07484777	-16.0253991	225	1	1.08889	0.977778;
	62	1	16.4	4.9	0	0	1	1.05698823	-13.1623793	225	1	1.08889	0.888889;
	63	1	1.6	12.7	0	0	1	1.07828977	-12.634102	225	1	1.08889	0.933333;
	64	1	29.7	12	0	0	1	1.074398	-25.4168568	225	1	1.08889	1.00444;
	65	1	54.7	13.6	0	0	1	1.07651381	-28.6243979	225	1	1.08889	1.00444;
	66	1	-21.9	-5.1	0	0	1	1.05824324	-20.6901763	225	1	1.08889	1;
	67	1	29.2	-2.5	0	0	1	1.07586538	-19.7482012	225	1	1.08889	0.986667;
	68	1	0	0	0	80	1	1.06445199	-13.6967736	225	1	1.08889	0.888889;
	69	1	0	0	0	0	1	1.04916623	-15.1009444	225	1	1.08889	0.888889;
	70	1	0	0	0	0	1	1.07331399	-10.0979115	380	1	1.10526	1.01316;
	71	1	76.3	14.3	0	0	1	1.04641519	-26.7084899	225	1	1.08889	1.00444;
	72	1	29	5	0	0	1	1.06702058	-25.5719476	225	1	1.08889	1.00444;
	73	1	0	0	0	0	1	1.05517999	-11.349061	225	1	1.08889	0.977778;
	74	1	0	0	0	0	1	1.05518998	-11.3483961	225	1	1.08889	0.977778;
	75	1	182.4	31.2	0	0	1	1.05239109	-12.1839592	225	1	1.08444	1.00889;
	76	1	0	0	0	0	1	1.07806244	-27.9004754	225	1	1.08444	1.00444;
	77	1	0	0	0	0	1	1.09683385	-21.8527282	380	1	1.10263	1.04211;
	78	1	116.1	17.6	0	0	1	1.07772146	-27.9599376	225	1	1.08444	1.00444;
	79	1	-7.4	0.9	0	0	1	1.07684659	-24.9534086	225	1	1.08936	1.00444;
	80	1	14	12.6	0	0	1	1.07671289	-24.9636854	225	1	1.08936	1.00444;
	81	1	48.7	2.9	0	0	1	1.08186452	-5.91042313	225	1	1.08889	0.888889;
	82	1	27.9	3.3	0	0	1	1.0494432	-16.197788	225	1	1.08124	0.95;
	83	1	61.9	19.7	0	0	1	1.07161353	-7.24066792	225	1	1.08889	0.888889;
	84	1	158.1	-16.5	0	0	1	1.03486563	-22.1954497	225	1	1.08889	1;
	85	1	0	0	0	0	1	1.02499286	-16.8486301	225	1	1.08889	1;
	86	1	403.7	124.8	0	0	1	1.06294366	-16.7929043	380	1	1.10526	1.0507;
	87	1	108.6	44.4	0	0	1	1.03678957	-17.2891042	225	1	1.08889	1;
	88	1	140.7	36.8	0	0	1	1.05524803	-20.9579076	225	1	1.08889	1;
	89	3	0	0	0	0	1	1.042	-21.4067707	150	1	1.1	0.9;
	90	1	56.6	23.2	0	0	1	1.02852499	-17.4455482	225	1	1.08889	0.986667;
	91	1	12.5	6.1	0	0	1	1.06097107	-10.0031754	225	1	1.08444	1.00889;
	92	1	0	0	0	0	1	1.09627324	-10.2700154	380	1	1.10526	1.04211;
	93	1	0	0	0	0	1	1.09625819	-10.3355865	380	1	1.10526	1.04211;
	96	1	12.7	0.6	0	0	1	1.03893207	-21.2449897	225	1	1.08889	1;
	97	1	18.3	11.1	0	0	1	1.0596605	-26.3357191	225	1	1.08889	1.00444;
	98	1	90.8	9.6	0	0	1	1.08911645	-20.3344608	150	1	1.1	0.9;
	99	1	82.1	-2.6	0	0	1	1.06157032	-19.5720723	225	1	1.08889	1;
	100	2	1.3	0	0	0	1	1.047	-26.5577063	225	1	1.08294	0.95;
	101	1	0	0	0	0	1	1.06995032	-11.5978551	225	1	1.08889	0.933333;
	102	1	0	0	0	0	1	1.08052954	-11.924343	380	1	1.10526	1.03947;
	103	1	0	0	0	0	1	1.08506453	-10.5867642	380	1	1.10526	1.03947;
	104	1	0	0	0	0	1	1.06316869	-29.5040245	225	1	1.08889	1.00444;
	1828	1	86.9	24.6	0	0	1	1.02237916	-27.6931347	225	1	1.08889	1.00444;
	105	1	0	0	0	0	1	1.01431963	-8.31503446	225	1	1.08889	0.986667;
	106	1	12.8	7.6	0	0	1	1.06301103	-29.5133042	225	1	1.08889	1.00444;
	107	1	150.1	27.1	0	0	1	1.05744924	-16.7264199	225	1	1.08889	0.933333;
	108	1	0	0	0	0	1	1.08758289	-13.0877873	380	1	1.10526	1.03947;
	109	1	32.1	-1.6	0	0	1	1.05215038	-19.417221	225	1	1.08889	1;
	110	1	29.4	1.2	0	0	1	1.06425234	-27.642225	225	1	1.08986	1.00444;
	111	1	131.9	2.8	0	0	1	1.04753265	-21.435273	225	1	1.09612	1;
	112	1	174.9	55.6	0	0	1	1.0480893	-6.09157215	225	1	1.08889	0.986667;
	113	1	129.6	33.2	0	0	1	1.07713413	-28.5292023	225	1	1.09036	1.00444;
	114	1	245.6	120.6	0	0	1	1.03177509	-16.9871253	225	1	1.08889	0.924444;
	115	1	82.1	14.7	0	0	1	1.09225757	-2.04830617	225	1	1.09614	0.986667;
	117	1	0	0	0	0	1	1.09379903	-0.727755285	380	1	1.10526	1.03947;
	119	1	192	-29.8	0	0	1	1.0604626	-44.1161729	225	1	1.08444	1.00444;
	120	1	21.6	-16.9	0	0	1	1.06080251	-27.7917709	225	1	1.08444	1.00889;
	121	1	0	0	0	0	1	1.05501171	-24.8212587	380	1	1.10263	1.02895;
	122	1	-0.1	-4.2	0	0	1	1.05800562	-16.7328351	225	1	1.08889	0.933333;
	123	1	172.6	37.2	0	0	1	1.05308316	-14.5118262	225	1	1.08889	0.933333;
	124	1	31.9	29.8	0	0	1	0.985363939	-27.6784487	63	1	1.07937	0.920635;
	125	2	0	0	0	0	1	1.075	-11.1769691	225	1	1.07476	0.95;
	126	1	4.4	5.3	0	0	1	1.062506	-12.613834	225	1	1.09768	1;
	127	1	0	0	0	0	1	1.06161579	-12.4427352	380	1	1.10526	1.05263;
	128	1	0	0	0	0	1	1.06167459	-12.4395988	380	1	1.10526	1.05263;
	129	1	0	0	0	0	1	1.06167422	-12.4360615	380	1	1.10526	1.05263;
	130	1	0	0	0	0	1	1.06167835	-12.4515691	380	1	1.10526	1.05263;
	131	1	0	0	0	0	1	1.09276307	-1.93042064	225	1	1.09645	0.986667;
	132	1	0	0	0	0	1	1.0931571	-1.88619765	225	1	1.09645	0.986667;
	133	1	0	0	0	0	1	1.09419382	-0.651562086	380	1	1.10526	1.03947;
	134	1	123.5	26.5	0	0	1	1.04657676	-17.4024119	225	1	1.08889	0.968889;
	135	1	39.1	10.1	0	0	1	1.05862259	-29.1603616	225	1	1.08444	1.00889;
	136	1	4.4	-3.3	0	0	1	1.09285544	-14.4372757	380	1	1.10526	1.03947;
	137	1	166.9	46.7	0	0	1	1.06621526	-13.5878608	225	1	1.08889	0.933333;
	138	1	0	0	0	0	1	1.0882627	-8.65600544	380	1	1.10526	1.03947;
	140	1	202	20.2	0	0	1	1.06348561	-7.7869717	225	1	1.08444	1.00889;
	142	1	231.3	-18.3	0	0	1	1.06376517	-21.3961822	225	1	1.08444	1.00444;
	143	1	49.3	7.8	0	0	1	1.0649414	-14.3161864	225	1	1.08889	0.933333;
	144	1	40.6	10.3	0	0	1	1.06492788	-14.31606	225	1	1.08889	0.933333;
	145	1	49.8	-6.2	0	0	1	1.06431083	-27.6288046	225	1	1.08952	1.00444;
	146	1	0	0	0	0	1	1.08361777	-15.618935	225	1	1.09478	1;
	147	1	0	0	0	0	1	1.08361578	-15.6189131	225	1	1.09478	1;
	148	1	68.7	4.5	0	0	1	1.03697112	-21.6752018	225	1	1.08889	1;
	149	1	30	-1.5	0	0	1	1.07012206	-22.6481553	225	1	1.08889	1.00444;
	150	1	52.2	3.9	0	0	1	1.05699124	-10.5259107	225	1	1.08444	1.00889;
	151	1	40.2	6.8	0	0	1	1.03017289	-22.9155161	225	1	1.08889	1;
	152	1	0	0	0	0	1	1.06803976	-18.9879194	225	1	1.08444	1.00889;
	153	1	0	0	0	0	1	1.06792493	-18.9978983	225	1	1.08444	1.00889;
	154	1	0	0	0	0	1	1.06866926	-13.7745261	225	1	1.08444	1.00889;
	155	1	0	0	0	0	1	1.06757925	-10.884721	380	1	1.10263	1.02895;
	156	1	165.9	38.2	0	0	1	1.07126568	-6.96706548	225	1	1.08889	0.888889;
	157	1	0	0	0	0	1	1.06251763	-12.6135949	225	1	1.09766	1;
	158	1	0	0	0	0	1	1.06158015	-12.5166749	380	1	1.10526	1.05263;
	159	1	37.1	-0.1	0	0	1	1.06926359	-20.6040287	225	1	1.08889	0.986667;
	160	1	17.9	14.6	0	0	1	1.0512347	-20.1442047	225	1	1.08889	1;
	161	1	0	0	0	0	1	1.06391328	-47.441446	225	1	1.08444	1.00444;
	162	1	0	0	0	0	1	1.06391328	-47.441446	225	1	1.08444	1.00444;
	163	1	0	0	0	0	1	1.06392074	-47.4416429	225	1	1.08444	1.00444;
	164	1	96.9	-7.4	0	0	1	1.06391223	-47.4414183	225	1	1.08444	1.00444;
	165	1	0	0	0	0	1	1.04927743	-14.6767254	225	1	1.08889	0.933333;
	166	1	8.5	-5.2	0	0	1	1.05572568	-18.02427	225	1	1.08889	0.986667;
	167	1	0	0	0	0	1	1.07936489	-15.5142129	225	1	1.08941	1;
	168	1	0	0	0	0	1	1.10077967	-13.6024603	380	1	1.10526	1.05263;
	169	2	0	0	0	0	1	1.065	-10.5249219	225	1	1.1	0.9;
	170	1	13	4	0	0	1	1.06383954	-14.2880382	150	1	1.08	0.966667;
	171	1	50.4	4.5	0	0	1	1.04775722	-26.3296854	225	1	1.08889	1.00444;
	172	1	0.4	0.6	0	0	1	1.04808289	-26.2470062	225	1	1.08889	1.00444;
	173	1	29.1	-7.9	0	0	1	1.07510271	-7.60835347	225	1	1.08889	0.888889;
	175	1	0	0	0	0	1	1.08947896	-15.1170648	225	1	1.09176	1;
	176	1	0	0	0	0	1	1.08946397	-15.1211228	225	1	1.09176	1;
	177	1	0	0	0	0	1	1.08946244	-15.1223442	225	1	1.09176	1;
	178	1	0	0	0	0	1	1.08946191	-15.1225765	225	1	1.09176	1;
	179	1	0	0	0	0	1	1.08947739	-15.1173251	225	1	1.09176	1;
	180	1	0	0	0	0	1	1.10268999	-12.5515716	380	1	1.10676	0.9;
	181	1	181.5	39.9	0	0	1	1.03038456	-22.8822804	225	1	1.08889	1;
	182	1	32	21.4	0	0	1	1.03335218	-7.53237796	225	1	1.08889	0.986667;
	183	1	0	0	0	0	1	1.10471737	-6.95885894	380	1	1.10526	1.03947;
	184	1	0	0	0	0	1	1.10476202	-6.86156369	380	1	1.10526	1.03947;
	185	1	0	0	0	0	1	1.10475502	-6.86499296	380	1	1.10526	1.03947;
	186	1	0	0	0	0	1	1.10465982	-6.96864901	380	1	1.10526	1.03947;
	187	1	65.9	23.3	0	0	1	1.04724644	-14.2642917	225	1	1.08889	0.924444;
	188	1	5.4	1.4	0	0	1	1.01775737	-15.7272414	225	1	1.08889	0.986667;
	189	1	101.7	-4.3	0	0	1	1.06132745	-37.4676645	225	1	1.08444	1.00444;
	190	1	-6.8	-0.2	0	0	1	1.10180435	-9.26483199	380	1	1.10263	1.04211;
	191	1	-5.3	-0	0	0	1	1.10179778	-9.28180545	380	1	1.10263	1.04211;
	192	1	0	0	0	0	1	1.04457634	-26.9859705	225	1	1.08889	1.00444;
	193	1	0	0	0	0	1	1.05679078	-11.6979011	225	1	1.08889	0.977778;
	194	1	0	0	0	0	1	1.05679078	-11.6979011	225	1	1.08889	0.977778;
	195	1	135.5	19.2	0	0	1	1.04444636	-18.3401444	225	1	1.08889	0.968889;
	196	1	0	0	0	0	1	1.04943203	-8.47223362	225	1	1.08889	0.933333;
	197	1	0	0	0	0	1	1.04835561	-8.8356974	225	1	1.08889	0.933333;
	198	1	98.9	26.5	0	0	1	1.05652666	-34.7787552	225	1	1.08444	1.00444;
	199	1	299.2	-25.2	0	0	1	1.06310473	-31.7611939	225	1	1.08444	1.00444;
	200	1	0	0	0	0	1	1.06607155	-14.3997019	225	1	1.08889	0.977778;
	201	1	0	0	0	0	1	1.08282899	-20.932469	225	1	1.08444	1.00444;
	202	1	211.2	31	0	0	1	1.04119738	-18.9915028	225	1	1.08889	0.951111;
	203	1	89.7	19.5	0	0	1	1.06681646	-25.4529807	225	1	1.08889	1.00444;
	204	1	92.2	26	0	0	1	1.01822283	-15.8825596	225	1	1.08889	0.986667;
	205	1	29.6	2.7	0	0	1	1.05432906	-28.4756697	225	1	1.08444	1.00889;
	206	1	0	0	0	0	1	1.05415256	-25.9310484	380	1	1.10263	1.02895;
...
];

%% generator data
%	bus	Pg	Qg	Qmax	Qmin	Vg	mBase	status	Pmax	Pmin	Pc1	Pc2	Qc1min	Qc1max	Qc2min	Qc2max	ramp_agc	ramp_10	ramp_30	ramp_q	apf
mpc.gen = [
	1268	44.5	4.52851206	27	-9	1.029	100	1	45	44	0	0	0	0	0	0	0	0	0	0	0;
	1268	44.5	4.52851206	27	-9	1.029	100	1	45	44	0	0	0	0	0	0	0	0	0	0	0;
	1356	21	-12	7	-12	1.057	100	1	22	4.4	0	0	0	0	0	0	0	0	0	0	0;
	89	23.9735169	4.0691459	13	-9	1.042	100	1	25	5	0	0	0	0	0	0	0	0	0	0	0;
	1837	5.24	1.20108515	16	-17	1.041	100	1	26	5.2	0	0	0	0	0	0	0	0	0	0	0;
	1837	22.86	1.20108515	16	-17	1.041	100	1	26	5.2	0	0	0	0	0	0	0	0	0	0	0;
	125	21.99	-2.70826457	8	-17	1.075	100	1	23.4	4.68	0	0	0	0	0	0	0	0	0	0	0;
	908	19	2	2	1.9	1.106	100	1	20	4	0	0	0	0	0	0	0	0	0	0	0;
	817	2.41	0.9	1	0.9	1.108	100	1	12	2.4	0	0	0	0	0	0	0	0	0	0	0;
	817	2.81	0.9	1	0.9	1.108	100	1	14	2.8	0	0	0	0	0	0	0	0	0	0	0;
	817	2.41	0.9	1	0.9	1.108	100	1	12	2.4	0	0	0	0	0	0	0	0	0	0	0;
	1335	29	-0.834967559	10	-10	1.044	100	1	30	6	0	0	0	0	0	0	0	0	0	0	0;
	396	0	0	5	1	1.031	100	0	11	2.2	0	0	0	0	0	0	0	0	0	0	0;
	396	0	0	5	1	1.031	100	0	11	2.2	0	0	0	0	0	0	0	0	0	0	0;
	975	11.46	-0.694081767	15	-15	1.048	100	1	35	7	0	0	0	0	0	0	0	0	0	0	0;
	858	4.35	0	0	0	1.054	100	1	55.4	11.08	0	0	0	0	0	0	0	0	0	0	0;
	921	18.67	13.4055546	25	-20	1.085	100	1	42	8.4	0	0	0	0	0	0	0	0	0	0	0;
	921	39.85	13.4055546	25	-20	1.085	100	1	42	8.4	0	0	0	0	0	0	0	0	0	0	0;
	1255	43.51	-8.23232797	26.1	-24.36	1.067	100	1	87	17.4	0	0	0	0	0	0	0	0	0	0	0;
	169	3.38	0.407729865	8.3	-8.3	1.065	100	1	8.3	1.66	0	0	0	0	0	0	0	0	0	0	0;
	448	1.91	0	0	0	1.068	100	1	4	0	0	0	0	0	0	0	0	0	0	0	0;
	241	0	0	5	-5	1.027	100	0	13	2.6	0	0	0	0	0	0	0	0	0	0	0;
	241	0	0	5	-5	1.027	100	0	13	2.6	0	0	0	0	0	0	0	0	0	0	0;
	241	0	0	5	-5	1.027	100	0	13	2.6	0	0	0	0	0	0	0	0	0	0	0;
	241	0	0	5	-5	1.027	100	0	13	2.6	0	0	0	0	0	0	0	0	0	0	0;
	270	47.99	15.6956218	27	-9	1.022	100	1	50	10	0	0	0	0	0	0	0	0	0	0	0;
	885	-0.5	0	0	0	1.079	100	1	8	1.6	0	0	0	0	0	0	0	0	0	0	0;
	885	-0.5	0	0	0	1.079	100	1	8	1.6	0	0	0	0	0	0	0	0	0	0	0;
	876	-0.45	0	0	0	1.046	100	1	54	10.8	0	0	0	0	0	0	0	0	0	0	0;
	180	231.98	80	80	-75	1.106	100	1	239	47.8	0	0	0	0	0	0	0	0	0	0	0;
	46	20.4138276	-4	10	-4	1.107	100	1	30	6	0	0	0	0	0	0	0	0	0	0	0;
	803	2.8	-5.56	4.63	-5.56	1.067	100	1	13.8	2.76	0	0	0	0	0	0	0	0	0	0	0;
	356	28.81	3.20642132	12.42	-11.59	1.06	100	1	41.4	8.28	0	0	0	0	0	0	0	0	0	0	0;
	100	126	24.2993026	59	-26	1.047	100	1	130	26	0	0	0	0	0	0	0	0	0	0	0;
	707	0	0	8	-8	1.092	100	0	21	4.2	0	0	0	0	0	0	0	0	0	0	0;
	973	-7.47	0	0	0	1.121	100	1	0	-8	0	0	0	0	0	0	0	0	0	0	0;
	973	50.65	0.0855486323	17	-10	1.121	100	1	53	10.6	0	0	0	0	0	0	0	0	0	0	0;
	1118	-5.1	0	0	0	1.041	100	1	55	11	0	0	0	0	0	0	0	0	0	0	0;
	897	5.41	0.123629511	10	-3	1.069	100	1	27	5.4	0	0	0	0	0	0	0	0	0	0	0;
	897	5.41	0.123629511	10	-3	1.069	100	1	27	5.4	0	0	0	0	0	0	0	0	0	0	0;
	58	1.21	2	2	1.9	1.107	100	1	6	1.2	0	0	0	0	0	0	0	0	0	0	0;
	82	6.51	0	0	0	1.051	100	1	25.3	5.06	0	0	0	0	0	0	0	0	0	0	0;
	474	7.68	3.50512635	10	-13	1.076	100	1	52	10.4	0	0	0	0	0	0	0	0	0	0	0;
	1221	11.61	2.74728639	35	-35	1.083	100	1	58	11.6	0	0	0	0	0	0	0	0	0	0	0;
	355	0	0	40	-40	1.092	100	0	62	12.4	0	0	0	0	0	0	0	0	0	0	0;
	471	4.25	1	1	0	1.039	100	1	78	15.6	0	0	0	0	0	0	0	0	0	0	0;
	1321	2.21	1	1	0.9	1.108	100	1	11	2.2	0	0	0	0	0	0	0	0	0	0	0;
	1321	0	0	0.1	-0.1	1.108	100	0	2.5	0	0	0	0	0	0	0	0	0	0	0	0;
	1829	1.59	6.40139424	8	-8	1.054	100	1	23.5	4.7	0	0	0	0	0	0	0	0	0	0	0;
	1005	26.26	-1.56	19	-19	1.11	100	1	39	7.8	0	0	0	0	0	0	0	0	0	0	0;
	14	2.24	0	0	0	1.059	100	1	27.6	5.52	0	0	0	0	0	0	0	0	0	0	0;
	14	0.83	0	0	0	1.059	100	1	24	4.8	0	0	0	0	0	0	0	0	0	0	0;
	1628	200	40.3980427	155.3	-217.55	0.997	100	1	670	200	0	0	0	0	0	0	0	0	0	0	0;
	1629	140	83.2027703	231.39	-190.58	1.006	100	1	700	140	0	0	0	0	0	0	0	0	0	0	0;
	1842	18.78	-1.14865071	15.23	-10.77	1.001	100	1	23	4.6	0	0	0	0	0	0	0	0	0	0	0;
	1843	11.18	-1.21088291	15.06	-10.94	1.004	100	1	23	4.6	0	0	0	0	0	0	0	0	0	0	0;
	1844	26	-0.998127737	24.62	-15.38	0.997	100	1	27	5.4	0	0	0	0	0	0	0	0	0	0	0;
	1630	83	4.36540618	43.86	-8.5	0.966	100	1	86	17.2	0	0	0	0	0	0	0	0	0	0	0;
	1631	9.81	1.27954725	22.19	-9.73	0.97	100	1	49	9.8	0	0	0	0	0	0	0	0	0	0	0;
	1845	25	21.912876	71.8	-30.08	1.03	100	1	124	24.8	0	0	0	0	0	0	0	0	0	0	0;
	1846	30.99	0.111076854	8.36	-8.36	1.05	100	1	32	6.4	0	0	0	0	0	0	0	0	0	0	0;
	1632	30.99	0.111076854	8.36	-8.36	1.05	100	1	32	6.4	0	0	0	0	0	0	0	0	0	0	0;
	1847	30.99	0.108200933	8.15	-8.57	1.05	100	1	32	6.4	0	0	0	0	0	0	0	0	0	0	0;
	1848	30.99	0.108200933	8.15	-8.57	1.05	100	1	32	6.4	0	0	0	0	0	0	0	0	0	0	0;
	1849	88.99	14.4243442	55.77	-34.23	1.032	100	1	92	18.4	0	0	0	0	0	0	0	0	0	0	0;
	1850	88.99	12.006665	50.5	-39.5	1.029	100	1	92	18.4	0	0	0	0	0	0	0	0	0	0	0;
	1851	87.24	11.523958	56.32	-33.68	1.032	100	1	92	18.4	0	0	0	0	0	0	0	0	0	0	0;
	1852	88.98	10.3693853	54.57	-35.43	1.03	100	1	92	18.4	0	0	0	0	0	0	0	0	0	0	0;
	1853	88.99	14.7106573	55.26	-34.74	1.032	100	1	92	18.4	0	0	0	0	0	0	0	0	0	0	0;
	1854	88.99	15.4025475	56.48	-33.52	1.033	100	1	92	18.4	0	0	0	0	0	0	0	0	0	0	0;
	1633	919	99.5446994	421.39	-376.62	1.013	100	1	945.08	255.07	0	0	0	0	0	0	0	0	0	0	0;
	1634	951	103.594087	428.83	-369.21	1.013	100	1	978.04	288.05	0	0	0	0	0	0	0	0	0	0	0;
	1635	949	102.915706	428.07	-369.92	1.013	100	1	976.08	256.08	0	0	0	0	0	0	0	0	0	0	0;
	1636	917	99.3576351	420.86	-377.13	1.013	100	1	943.08	253.07	0	0	0	0	0	0	0	0	0	0	0;
	1637	244.97	63.8099777	153.03	-90.23	1.033	100	1	252	156	0	0	0	0	0	0	0	0	0	0	0;
	1638	242.98	61.8141828	152.44	-90.81	1.029	100	1	250	154	0	0	0	0	0	0	0	0	0	0	0;
	1639	242.98	32.2476048	105.68	-58.28	1.033	100	1	250	154	0	0	0	0	0	0	0	0	0	0	0;
	1640	122.01	68.0375783	228.81	-159.91	1.05	100	1	305	122	0	0	0	0	0	0	0	0	0	0	0;
	1641	89.01	23.6802879	94.32	-74.64	1.045	100	1	155	89	0	0	0	0	0	0	0	0	0	0	0;
	1642	55.99	1.02767173	21.65	-18.77	1.006	100	1	58	11.6	0	0	0	0	0	0	0	0	0	0	0;
	1643	55.99	0.896178995	16.01	-10.66	1.005	100	1	58	11.6	0	0	0	0	0	0	0	0	0	0	0;
	1855	55.99	1.02767173	21.47	-18.95	1.006	100	1	58	11.6	0	0	0	0	0	0	0	0	0	0	0;
	1644	55.99	0.896178995	16.05	-10.62	1.005	100	1	58	11.6	0	0	0	0	0	0	0	0	0	0	0;
	1645	55.99	0.896178995	15.81	-10.86	1.005	100	1	58	11.6	0	0	0	0	0	0	0	0	0	0	0;
	1646	254.99	71.6221096	146.45	-90.18	1.007	100	1	263	133	0	0	0	0	0	0	0	0	0	0	0;
	1647	43	7.07847032	50.67	-38.09	1.061	100	1	44.96	8.99	0	0	0	0	0	0	0	0	0	0	0;
	1856	134.98	-1.37583154	108.44	-71.56	1.023	100	1	139	27.8	0	0	0	0	0	0	0	0	0	0	0;
	1857	29.44	0.159381319	34.32	-25.68	0.986	100	1	49	9.8	0	0	0	0	0	0	0	0	0	0	0;
	1858	24.2	-0.129068739	55.44	-44.56	0.99	100	1	49	9.8	0	0	0	0	0	0	0	0	0	0	0;
	1859	46.98	0.317907567	34.29	-25.71	0.988	100	1	49	9.8	0	0	0	0	0	0	0	0	0	0	0;
	2070	9.82	0.493790708	31.96	-28.04	0.992	100	1	49	9.8	0	0	0	0	0	0	0	0	0	0	0;
	1860	30.99	1.9129547	18.84	-17.16	1.039	100	1	32	6.4	0	0	0	0	0	0	0	0	0	0	0;
	1861	30.99	2.01236451	19.75	-16.25	1.046	100	1	32	6.4	0	0	0	0	0	0	0	0	0	0	0;
	1648	909.99	377.984269	530.99	-158.23	1.05	100	1	936.29	266.29	0	0	0	0	0	0	0	0	0	0	0;
	1649	915.99	335.415263	533.69	-156.07	1.045	100	1	942.82	272.82	0	0	0	0	0	0	0	0	0	0	0;
	1650	897.99	378.561895	537.68	-152.82	1.05	100	1	924.28	274.28	0	0	0	0	0	0	0	0	0	0	0;
	1651	896.99	327.175778	529.89	-160.89	1.044	100	1	922.8	272.8	0	0	0	0	0	0	0	0	0	0	0;
	1652	1272	173.306663	681.04	-153	1.018	100	1	1308	318	0	0	0	0	0	0	0	0	0	0	0;
	1862	1272	173.372937	681.03	-153	1.018	100	1	1308	318	0	0	0	0	0	0	0	0	0	0	0;
	1653	33.99	0.0842041808	6.08	-1.92	1.041	100	1	35	7	0	0	0	0	0	0	0	0	0	0	0;
	1654	33.99	0.0842041808	6.21	-1.79	1.041	100	1	35	7	0	0	0	0	0	0	0	0	0	0	0;
	1655	33.99	0.0842041808	6.21	-1.79	1.041	100	1	35	7	0	0	0	0	0	0	0	0	0	0	0;
	1656	33.99	0.0842041808	6.11	-1.89	1.041	100	1	35	7	0	0	0	0	0	0	0	0	0	0	0;
	1657	33.99	0.0842041808	6.11	-1.89	1.041	100	1	35	7	0	0	0	0	0	0	0	0	0	0	0;
	1658	33.99	0.0842041808	6.11	-1.89	1.041	100	1	35	7	0	0	0	0	0	0	0	0	0	0	0;
	1863	29.13	1.34049897	18.45	-13.16	0.996	100	1	36.97	7.39	0	0	0	0	0	0	0	0	0	0	0;
	1659	30.6	1.48876477	18.45	-13.16	0.996	100	1	36.97	7.39	0	0	0	0	0	0	0	0	0	0	0;
	1660	30.59	1.48773124	18.45	-11.35	0.996	100	1	36.97	7.39	0	0	0	0	0	0	0	0	0	0	0;
	1661	30.59	1.48773124	18.11	-11.7	0.996	100	1	36.97	7.39	0	0	0	0	0	0	0	0	0	0	0;
	1662	30.64	1.50276494	18.21	-13.41	0.995	100	1	36.97	7.39	0	0	0	0	0	0	0	0	0	0	0;
	1663	30.59	1.49758329	18.55	-13.05	0.995	100	1	36.97	7.39	0	0	0	0	0	0	0	0	0	0	0;
	1864	18.35	-0.0694874304	10.54	-9.46	0.975	100	1	20	4	0	0	0	0	0	0	0	0	0	0	0;
	1865	18.99	-0.0125362394	12.32	-7.68	0.975	100	1	20	4	0	0	0	0	0	0	0	0	0	0	0;
	1866	27.1	1.43151707	17.85	-13.79	0.994	100	1	30.98	6.2	0	0	0	0	0	0	0	0	0	0	0;
	1664	27.56	1.1780278	17.85	-13.79	0.993	100	1	30.98	6.2	0	0	0	0	0	0	0	0	0	0	0;
	1665	27.57	1.47516079	18.01	-13.62	0.994	100	1	30.98	6.2	0	0	0	0	0	0	0	0	0	0	0;
	1867	27.03	1.4250817	18.01	-13.62	0.994	100	1	30.98	6.2	0	0	0	0	0	0	0	0	0	0	0;
	1666	26.84	1.41765267	17.89	-13.75	0.995	100	1	30.98	6.2	0	0	0	0	0	0	0	0	0	0	0;
	1868	26.48	1.38512048	17.74	-13.91	0.995	100	1	30.98	6.2	0	0	0	0	0	0	0	0	0	0	0;
	1667	1292.99	303.272686	656.06	-184.89	1.04	100	1	1330	337	0	0	0	0	0	0	0	0	0	0	0;
	1869	467	236.485672	515.51	-327.72	1.04	100	1	1360	467	0	0	0	0	0	0	0	0	0	0	0;
	1668	1321.99	344.403421	656.92	-183.9	1.042	100	1	1360	367	0	0	0	0	0	0	0	0	0	0	0;
	1669	1321.99	392.494108	648.03	-192.8	1.048	100	1	1360	367	0	0	0	0	0	0	0	0	0	0	0;
	1870	73.37	0.670734914	60.11	-39.89	0.977	100	1	90	18	0	0	0	0	0	0	0	0	0	0	0;
	1871	0	0	59.33	-40.67	1.036	100	0	95	19	0	0	0	0	0	0	0	0	0	0	0;
	1872	0	0	59.61	-40.39	0.993	100	0	102	20.4	0	0	0	0	0	0	0	0	0	0	0;
	1670	1.45	35.9297495	281.46	-103.91	1.018	100	1	1.5	1.4	0	0	0	0	0	0	0	0	0	0	0;
	1873	48.01	27.7761409	94.03	-45.97	1.027	100	1	240	48	0	0	0	0	0	0	0	0	0	0	0;
	1874	48.01	29.7031186	95.11	-44.89	1.028	100	1	240	48	0	0	0	0	0	0	0	0	0	0	0;
	1671	916	264.495618	524.6	-107.2	1.029	100	1	942.72	232.72	0	0	0	0	0	0	0	0	0	0	0;
	1673	927	249.173792	511.64	-99.08	1.027	100	1	953.74	243.74	0	0	0	0	0	0	0	0	0	0	0;
	1674	926	290.356563	555.41	-99.32	1.032	100	1	952.74	242.74	0	0	0	0	0	0	0	0	0	0	0;
	1675	1461	444.841196	682.28	-126.36	1.053	100	1	1503	403	0	0	0	0	0	0	0	0	0	0	0;
	1676	1461	485.489967	687.17	-121.66	1.057	100	1	1503	403	0	0	0	0	0	0	0	0	0	0	0;
	1875	1456	64.3421122	409.45	-352.29	1.002	100	1	1498	398	0	0	0	0	0	0	0	0	0	0	0;
	1677	1456	63.9491579	409.42	-352.33	1.002	100	1	1498	398	0	0	0	0	0	0	0	0	0	0	0;
	1877	15.01	12.1516091	51.88	-38.44	1.077	100	1	75	15	0	0	0	0	0	0	0	0	0	0	0;
	1878	15.01	12.1516091	51.88	-38.44	1.077	100	1	75	15	0	0	0	0	0	0	0	0	0	0	0;
	1678	92	18.4741487	104.12	-61.4	1.001	100	1	95	8.5	0	0	0	0	0	0	0	0	0	0	0;
	1679	92	18.4735722	103.94	-61.58	1.001	100	1	95	8.5	0	0	0	0	0	0	0	0	0	0	0;
	1680	144	23.495261	86.67	-10.65	1.007	100	1	148.2	4.2	0	0	0	0	0	0	0	0	0	0	0;
	1681	602.4	48.8611714	220.22	-59.17	0.997	100	1	685	180	0	0	0	0	0	0	0	0	0	0	0;
	1682	593	105.216031	330.28	-165.24	1.007	100	1	610	310	0	0	0	0	0	0	0	0	0	0	0;
	1683	593	86.6953161	297.67	-191.83	1.003	100	1	610	310	0	0	0	0	0	0	0	0	0	0	0;
	1684	585.86	86.331284	254.82	-293.65	1.004	100	1	700	205	0	0	0	0	0	0	0	0	0	0	0;
	1880	14.03	0.39714002	16.85	-27.03	1.056	100	1	38	7.6	0	0	0	0	0	0	0	0	0	0	0;
	2045	0	0	15.82	-14.18	1.045	100	0	31	6.2	0	0	0	0	0	0	0	0	0	0	0;
	2081	0	0	15.82	-14.18	1.045	100	0	31	6.2	0	0	0	0	0	0	0	0	0	0	0;
	1881	45.83	0.892071028	15.6	-13.8	0.976	100	1	50	10	0	0	0	0	0	0	0	0	0	0	0;
	1882	46.4	0.959117227	15.2	-14.2	0.976	100	1	50	10	0	0	0	0	0	0	0	0	0	0	0;
	1685	46.83	1.01025204	15.81	-13.6	0.976	100	1	50	10	0	0	0	0	0	0	0	0	0	0	0;
	1883	45.13	0.810882718	15.81	-13.6	0.976	100	1	50	10	0	0	0	0	0	0	0	0	0	0	0;
	1884	43.76	1.05437456	15.81	-13.6	0.977	100	1	50	10	0	0	0	0	0	0	0	0	0	0	0;
	1885	46.25	0.941392029	15.6	-13.8	0.976	100	1	50	10	0	0	0	0	0	0	0	0	0	0	0;
	1686	971.99	153.968503	532.91	-90.14	1.02	100	1	1000	280	0	0	0	0	0	0	0	0	0	0	0;
	1687	971.99	153.978283	535.45	-87.61	1.02	100	1	1000	280	0	0	0	0	0	0	0	0	0	0	0;
	1688	971.99	169.739737	567.71	-88.3	1.022	100	1	1000	280	0	0	0	0	0	0	0	0	0	0	0;
	1689	903.99	169.985595	559.16	-96.85	1.023	100	1	930	280	0	0	0	0	0	0	0	0	0	0	0;
	1886	35.58	-0.823728357	17.23	-17.46	1.026	100	1	57	11.4	0	0	0	0	0	0	0	0	0	0	0;
	1887	11.41	-0.675488895	15.45	-19.21	1.028	100	1	57	11.4	0	0	0	0	0	0	0	0	0	0	0;
	1888	54.99	-0.423273453	17.35	-17.35	1.024	100	1	57	11.4	0	0	0	0	0	0	0	0	0	0	0;
	1690	239.02	86.3219848	219.77	-155.72	1.013	100	1	451	239	0	0	0	0	0	0	0	0	0	0	0;
	1691	21.01	4.80288767	51.25	-10.63	1.026	100	1	63	21	0	0	0	0	0	0	0	0	0	0	0;
	1692	248.81	110.451653	258.1	-182.18	1.073	100	1	433.8	248.8	0	0	0	0	0	0	0	0	0	0	0;
	1693	81.81	3.39420434	71.21	-44.25	0.99	100	1	168.17	81.81	0	0	0	0	0	0	0	0	0	0	0;
	1694	82.28	3.77374215	73.34	-37.69	0.99	100	1	168.6	82.28	0	0	0	0	0	0	0	0	0	0	0;
	1695	203.71	7.94912058	113.53	-43.7	0.984	100	1	248.21	53.91	0	0	0	0	0	0	0	0	0	0	0;
	1696	195.15	6.93662362	100.92	-59.36	0.988	100	1	238.09	43.97	0	0	0	0	0	0	0	0	0	0	0;
	1697	894	209.449602	525.14	-88.61	1.027	100	1	919.69	229.69	0	0	0	0	0	0	0	0	0	0	0;
	1698	894	209.449602	525.14	-88.61	1.027	100	1	919.69	229.69	0	0	0	0	0	0	0	0	0	0	0;
	1699	901	210.195127	526.77	-86.99	1.027	100	1	926.69	236.69	0	0	0	0	0	0	0	0	0	0	0;
	1700	915	211.704968	530.29	-83.48	1.027	100	1	941.69	251.69	0	0	0	0	0	0	0	0	0	0	0;
	1701	30.99	0.288573873	10.32	-9.68	1.028	100	1	32	6.4	0	0	0	0	0	0	0	0	0	0	0;
	1702	35.39	7.60360092	19.22	-17.67	0.97	100	1	39.88	7.98	0	0	0	0	0	0	0	0	0	0	0;
	1703	35.4	7.60463054	19.34	-17.74	0.97	100	1	39.88	7.98	0	0	0	0	0	0	0	0	0	0	0;
	1889	34.21	7.48416995	19.24	-17.66	0.97	100	1	39.88	7.98	0	0	0	0	0	0	0	0	0	0	0;
	1704	1342	248.544367	398.39	-396.86	1.05	100	1	1380	340	0	0	0	0	0	0	0	0	0	0	0;
	1705	1342	252.790153	371.08	-424.16	1.05	100	1	1380	340	0	0	0	0	0	0	0	0	0	0	0;
	1890	16.69	0.183791833	5.35	-2.57	0.955	100	1	24	4.8	0	0	0	0	0	0	0	0	0	0	0;
	1891	18.06	0.317404371	5.48	-2.43	0.955	100	1	24	4.8	0	0	0	0	0	0	0	0	0	0	0;
	1892	18.82	0.211175545	5	-2.93	0.954	100	1	24	4.8	0	0	0	0	0	0	0	0	0	0	0;
	1706	19.25	0.257211353	5.29	-2.63	0.954	100	1	24	4.8	0	0	0	0	0	0	0	0	0	0	0;
	1893	62.98	8.35370998	35.48	-24.52	0.998	100	1	65	13	0	0	0	0	0	0	0	0	0	0	0;
	1894	67.98	1.4550049	19	-25.15	0.994	100	1	70	14	0	0	0	0	0	0	0	0	0	0	0;
	1895	43.62	10.6575026	51.66	-38.34	1.008	100	1	67	13.4	0	0	0	0	0	0	0	0	0	0	0;
	1896	64.98	11.2668876	53.39	-36.61	1.007	100	1	67	13.4	0	0	0	0	0	0	0	0	0	0	0;
	1897	67.99	8.45159844	36.87	-23.13	0.997	100	1	70	14	0	0	0	0	0	0	0	0	0	0	0;
	1707	17.66	0.83464339	10	-4.98	0.976	100	1	23.99	4.8	0	0	0	0	0	0	0	0	0	0	0;
	1898	17.31	0.803644171	10.17	-4.8	0.976	100	1	23.99	4.8	0	0	0	0	0	0	0	0	0	0	0;
	1899	14.84	0.805424336	10.25	-4.72	0.977	100	1	23.99	4.8	0	0	0	0	0	0	0	0	0	0	0;
	1708	17.79	1.81	1.81	1.8	0.981	100	1	23.99	4.8	0	0	0	0	0	0	0	0	0	0	0;
	1709	17.66	0.83464339	10.16	-4.81	0.976	100	1	23.99	4.8	0	0	0	0	0	0	0	0	0	0	0;
	1710	24.74	0.63014566	12.23	-7.55	0.999	100	1	28.98	5.8	0	0	0	0	0	0	0	0	0	0	0;
	1711	24.74	0.63014566	12.31	-7.46	0.999	100	1	28.98	5.8	0	0	0	0	0	0	0	0	0	0	0;
	1712	1272	132.664118	615.09	-439.22	1.01	100	1	1308	288	0	0	0	0	0	0	0	0	0	0	0;
	1713	1272	133.720852	614.63	-439.67	1.01	100	1	1308	288	0	0	0	0	0	0	0	0	0	0	0;
	1900	0	0	10.45	-9.55	1.023	100	0	22	4.4	0	0	0	0	0	0	0	0	0	0	0;
	2017	0	0	10.45	-9.55	1.023	100	0	22	4.4	0	0	0	0	0	0	0	0	0	0	0;
	1714	109.01	109.485001	255.9	-84.1	1.058	100	1	458.26	89.26	0	0	0	0	0	0	0	0	0	0	0;
	1901	33.75	0.540095475	10.34	-16.91	1.02	100	1	36	7.2	0	0	0	0	0	0	0	0	0	0	0;
...
];

%% branch data
%	fbus	tbus	r	x	b	rateA	rateB	rateC	ratio	angle	status	angmin	angmax	Pf	Qf	Pt	Qt
mpc.branch = [
	1833	1	0.002607	0.017462	0.0324	540	540	540	1	0	1	0	0	36.4394	16.2360	-36.4000	-19.5000;
	29	2	2.1e-05	0.000125	0.1386	737	737	737	1	0	1	0	0	198.6000	31.3567	-198.5926	-47.5121;
	675	2	0.000145	0.001877	0.0635	2487	2487	2487	1	0	1	0	0	-366.5946	-117.7633	366.7783	112.7376;
	1271	2	0.000319	0.003234	0.0838	1841	1841	1841	1	0	1	0	0	27.6958	-38.9701	-27.6906	29.2384;
	30	2	2.1e-05	0.000125	0.1386	737	737	737	1	0	1	0	0	140.5000	78.2931	-140.4951	-94.4639;
	142	3	0.006163	0.041067	0.0759	446	446	446	1	0	1	0	0	104.3849	-22.6006	-103.7732	18.0730;
	677	3	0.000652	0.004369	0.0081	558	558	558	1	0	1	0	0	141.5483	34.3654	-141.4268	-34.4730;
	1048	4	0.009733	0.034089	0.0185	0	0	0	1	0	1	0	0	75.8300	28.8506	-75.2865	-29.1175;
	101	5	0.000277	0.002015	0.003	288	288	288	1	0	1	0	0	102.0763	-19.4857	-102.0502	19.3322;
	286	6	0.00881	0.033995	0.0607	289	289	289	1	0	1	0	0	-108.5575	-28.5281	109.5502	25.5546;
	329	6	0.004642	0.019832	0.0354	255	255	255	1	0	1	0	0	48.9883	-33.1008	-48.8502	29.6700;
	737	5	0.008861	0.03506	0.0623	288	288	288	1	0	1	0	0	-74.9727	7.6593	75.4198	-13.0047;
	760	5	0.006993	0.032869	0.0557	255	255	255	1	0	1	0	0	35.0932	-34.3112	-34.9568	28.6188;
	1330	6	0.002173	0.008731	0.0152	0	0	0	1	0	1	0	0	-29.3000	-19.2000	29.3229	17.5629;
	1350	5	0.00077	0.003121	0.0051	0	0	0	1	0	1	0	0	14.0000	7.5000	-13.9983	-8.0771;
	1523	6	0.004109	0.016138	0.0284	288	288	288	1	0	1	0	0	-10.4406	9.5967	10.4490	-12.8044;
	102	8	8.3e-05	0.000907	0.0202	1034	1034	1034	1	0	1	0	0	177.9800	7.1894	-177.9574	-9.3007;
	316	8	0.000552	0.006726	0.0939	1786	1786	1786	1	0	1	0	0	-162.7644	126.5394	162.9694	-135.0742;
	623	8	0.000512	0.008012	0.2455	2462	2462	2462	1	0	1	0	0	502.5307	88.7220	-501.3957	-99.8626;
	882	8	0.001107	0.00918	0.1906	1644	1644	1644	1	0	1	0	0	-156.3220	-42.0337	156.5649	21.8916;
	103	7	6.2e-05	0.000741	0.0173	1095	1095	1095	1	0	1	0	0	176.2200	-0.3594	-176.2036	-1.4818;
	623	8	0.000512	0.008019	0.2455	2462	2462	2462	1	0	1	0	0	502.0881	88.6601	-500.9551	-99.8161;
	623	7	0.001153	0.013123	0.1841	1433	1433	1433	1	0	1	0	0	94.1519	20.3246	-94.0563	-41.0022;
	113	9	0.000158	0.000672	0.0719	331	331	331	1	0	1	0	0	20.7008	-4.8710	-20.7002	-3.4683;
	1134	9	4.5e-05	8.9e-05	0.002	268	268	268	1	0	1	0	0	-20.7000	-3.7000	20.7002	3.4683;
	346	10	0.00478	0.028622	0.0547	455	455	455	1	0	1	0	0	70.6500	27.8359	-70.3910	-32.2182;
	345	10	0.00478	0.028583	0.0547	455	455	455	1	0	1	0	0	123.6917	14.8393	-123.0090	-16.6818;
	106	11	0.000257	0.000514	0.0294	0	0	0	1	0	1	0	0	57.7080	11.2944	-57.7000	-14.6000;
	758	12	0.000257	0.002153	0.2147	452	452	452	1	0	1	0	0	-220.6926	-34.7767	220.8021	10.8666;
	962	12	0.000277	0.000869	0.0931	481	481	481	1	0	1	0	0	248.7521	24.9529	-248.6021	-35.2666;
	955	13	0.000237	0.00083	0.1863	268	268	268	1	0	1	0	0	126.4020	42.4177	-126.3626	-63.3289;
	995	13	0.000178	0.000612	0.1377	268	268	268	1	0	1	0	0	51.1421	-26.3604	-51.1374	10.8289;
	39	14	0.002568	0.011753	0.0203	424	424	424	1	0	1	0	0	56.0043	2.5560	-55.9324	-4.5046;
	1428	14	0.002568	0.011615	0.0228	290	290	290	1	0	1	0	0	16.8042	0.2693	-16.7976	-2.7954;
	1054	16	9.9e-05	0.00077	0.078	379	379	379	1	0	1	0	0	-88.4932	-20.1346	88.5000	10.9571;
	1054	15	9.9e-05	0.00077	0.077	379	379	379	1	0	1	0	0	-88.4932	-20.0168	88.5000	10.9577;
	1428	17	0.000514	0.003437	0.0061	290	290	290	1	0	1	0	0	-16.8042	-0.2693	16.8055	-0.4062;
	1432	17	0.005476	0.036879	0.1255	522	522	522	1	0	1	0	0	-34.8839	-28.9855	34.9686	15.6067;
	39	17	0.000514	0.003457	0.0061	418	418	418	1	0	1	0	0	118.0390	15.8521	-117.9740	-16.1004;
	869	18	0.003477	0.01118	0.0187	304	304	304	1	0	1	0	0	-26.8367	10.6656	26.8626	-12.7347;
	1089	18	0.000612	0.003121	0.0152	270	270	270	1	0	1	0	0	39.1710	-7.3409	-39.1626	5.6347;
	1164	20	2.4e-05	0.000144	0.0213	701	701	701	1	0	1	0	0	29.2002	4.8655	-29.2000	-7.2000;
	1164	19	7.1e-05	0.000162	0.0162	251	251	251	1	0	1	0	0	67.9033	21.2312	-67.9000	-23.0000;
	972	21	0.000257	0.001165	0.002	405	405	405	1	0	1	0	0	77.8160	31.0475	-77.8000	-31.2000;
	476	22	0.005709	0.037926	0.0688	492	492	492	1	0	1	0	0	-8.7117	-0.3828	8.7162	-7.1207;
	1497	22	0.001758	0.011654	0.0208	492	492	492	1	0	1	0	0	114.5296	14.8098	-114.3162	-15.6793;
	69	23	0.001383	0.009462	0.0172	463	463	463	1	0	1	0	0	105.3173	22.1244	-105.1712	-23.0123;
	446	23	0.00156	0.006933	0.0121	432	432	432	1	0	1	0	0	-140.5473	-27.4205	140.8415	27.4098;
	605	23	0.006376	0.028733	0.0506	432	432	432	1	0	1	0	0	136.1065	-25.7943	-134.9981	25.2489;
	987	23	0.00158	0.010627	0.0192	481	481	481	1	0	1	0	0	-58.1648	30.6667	58.2279	-32.3463;
	845	25	0.001086	0.003536	0.3766	506	506	506	1	0	1	0	0	56.2323	-33.9980	-56.2000	-8.1000;
	845	26	0.001086	0.003536	0.3766	506	506	506	1	0	1	0	0	29.3104	-35.7824	-29.3000	-6.4000;
	123	27	0.004741	0.020385	0.0334	0	0	0	1	0	1	0	0	16.0305	12.1510	-16.0112	-15.7597;
	1479	27	0.009027	0.048869	0.084	351	351	351	1	0	1	0	0	91.1910	16.7230	-90.4943	-22.3556;
	1500	27	0.003516	0.016257	0.0273	311	311	311	1	0	1	0	0	-4.4048	-3.1187	4.4055	0.1153;
	289	28	0.000514	0.003417	0.0278	452	452	452	1	0	1	0	0	-58.5592	-0.5369	58.5748	-2.5161;
	307	28	0.001084	0.007198	0.0132	448	448	448	1	0	1	0	0	169.6303	19.5299	-169.3533	-19.1938;
	1451	28	0.000523	0.002436	0.0167	348	348	348	1	0	1	0	0	-121.4862	-13.8330	121.5550	12.2588;
	289	28	0.000514	0.003457	0.0203	356	356	356	1	0	1	0	0	-57.8981	-0.2216	57.9132	-1.9810;
	307	28	0.001086	0.007249	0.0132	540	540	540	1	0	1	0	0	168.4408	19.5186	-168.1671	-19.1950;
	1450	28	0.000553	0.002469	0.0157	405	405	405	1	0	1	0	0	-95.0398	-11.4226	95.0844	9.8400;
	307	28	0.001086	0.007269	0.0132	540	540	540	1	0	1	0	0	167.9793	19.5318	-167.7071	-19.2129;
	842	31	0.001837	0.011694	0.0759	467	467	467	1	0	1	0	0	-236.0330	-41.5366	236.9752	39.0157;
	960	31	0.001067	0.007131	0.0132	413	413	413	1	0	1	0	0	-1.9000	-1.3000	1.9000	-0.1932;
	1269	31	0.001284	0.008593	0.0152	541	541	541	1	0	1	0	0	-42.0863	16.5948	42.1098	-18.1586;
	1270	31	0.001284	0.008593	0.0162	541	541	541	1	0	1	0	0	158.3268	26.2823	-158.0361	-26.1769;
	1270	31	0.001284	0.008533	0.0162	541	541	541	1	0	1	0	0	159.4436	26.3055	-159.1489	-26.1871;
	212	33	0.000494	0.000928	0.0699	0	0	0	1	0	1	0	0	-26.8000	0.9000	26.8032	-8.8412;
	326	33	0.000184	0.00159	0.1661	422	422	422	1	0	1	0	0	-340.8948	-3.8401	341.0831	-13.4098;
	1153	33	0.000198	0.001711	0.1711	385	385	385	1	0	1	0	0	254.1613	-5.7359	-254.0489	-12.7570;
	1170	33	0.000751	0.003358	0.1534	385	385	385	1	0	1	0	0	247.4442	-30.5479	-247.0374	14.9079;
	344	2013	0.000178	0.001047	0.1499	452	452	452	1	0	1	0	0	123.7736	-15.5715	-123.7494	-1.2590;
	489	34	0.000119	0.000474	0.0688	452	452	452	1	0	1	0	0	89.4098	22.4174	-89.4000	-29.6000;
	955	2013	0.000316	0.002232	0.2774	452	452	452	1	0	1	0	0	-123.7058	-32.3352	123.7494	1.2590;
	1257	35	0.037227	0.106836	0.0328	0	0	0	1	0	1	0	0	24.1044	2.6449	-23.9119	-5.8651;
	1439	35	0.006089	0.020756	0.0067	0	0	0	1	0	1	0	0	-13.5997	-6.9834	13.6119	6.2651;
	846	36	0.000729	0.005118	0.0933	389	389	389	1	0	1	0	0	-216.3923	13.9034	216.7090	-21.8214;
	846	36	0.000755	0.005235	0.0909	419	419	419	1	0	1	0	0	-211.4703	13.9746	211.7836	-21.6825;
	228	37	0.001787	0.01946	0.4214	1579	1579	1579	1	0	1	0	0	-58.4845	-11.3933	58.5420	-34.6070;
	477	38	0.001719	0.00877	0.0157	321	321	321	1	0	1	0	0	-7.7278	7.8297	7.7300	-9.4322;
	1179	38	0.009165	0.04318	0.077	321	321	321	1	0	1	0	0	153.9920	11.1292	-151.9300	-9.4678;
	134	39	0.004879	0.032454	0.0602	487	487	487	1	0	1	0	0	-123.5000	-26.5000	124.2034	24.4986;
	195	39	0.006341	0.042746	0.0785	418	418	418	1	0	1	0	0	-135.5000	-19.2000	136.5802	17.7884;
	208	39	0.006914	0.031249	0.0547	327	327	327	1	0	1	0	0	47.1329	-33.9548	-46.9352	28.7362;
	296	40	0.000582	0.007652	0.2643	2487	2487	2487	1	0	1	0	0	85.9334	-71.4646	-85.8801	41.6114;
	766	40	0.001648	0.021634	0.748	2487	2487	2487	1	0	1	0	0	700.9655	-15.5895	-694.0658	18.8216;
	950	40	0.000838	0.014301	0.5198	2487	2487	2487	1	0	1	0	0	635.3415	167.1942	-632.2969	-177.0873;
	1282	40	0.001163	0.015312	0.5285	2487	2487	2487	1	0	1	0	0	-723.9443	-4.7893	729.2980	14.5036;
	296	40	0.000575	0.007576	0.2614	2487	2487	2487	1	0	1	0	0	86.8056	-71.8485	-86.7519	42.3376;
	766	40	0.001646	0.021633	0.7479	2487	2487	2487	1	0	1	0	0	701.0001	-15.5201	-694.1081	18.7693;
	950	40	0.000838	0.014287	0.5198	2487	2487	2487	1	0	1	0	0	635.9733	167.3521	-632.9228	-177.1945;
	1281	40	0.00117	0.015339	0.5285	2487	2487	2487	1	0	1	0	0	-765.6762	2.2716	771.7056	16.0098;
	1282	40	0.001821	0.017874	0.4318	1382	1382	1382	1	0	1	0	0	-617.9984	12.9480	624.1221	-2.4931;
	558	41	0.000672	0.003477	0.0365	254	254	254	1	0	1	0	0	64.7261	8.6947	-64.7000	-12.6000;
	1420	42	0.000632	0.004188	0.0081	471	471	471	1	0	1	0	0	44.6126	14.7788	-44.6000	-15.6000;
	1420	43	0.000612	0.004148	0.0071	471	471	471	1	0	1	0	0	46.9128	10.9935	-46.9000	-11.7000;
	1040	44	0.000672	0.004405	0.0081	541	541	541	1	0	1	0	0	144.0040	24.3184	-143.8790	-24.4259;
	1521	44	0.000968	0.004602	0.0081	304	304	304	1	0	1	0	0	94.9173	11.8198	-94.8399	-12.3789;
	1040	44	0.000632	0.004444	0.0081	440	440	440	1	0	1	0	0	142.6970	25.5829	-142.5811	-25.6952;
	1524	45	0.001975	0.013215	0.0243	541	541	541	1	0	1	0	0	49.7576	-11.8948	-49.7127	9.4348;
	1525	45	0.001956	0.013037	0.0243	0	0	0	1	0	1	0	0	112.0183	-30.2835	-111.7873	29.0652;
	1321	46	0.002933	0.010267	0.0032	0	0	0	1	0	1	0	0	9.8391	3.9176	-9.8364	-4.3002;
	1429	46	0.0028	0.007511	0.0022	0	0	0	1	0	1	0	0	-30.2293	-0.5133	30.2502	0.3002;
	49	48	2e-05	0.000198	0.0121	261	261	261	1	0	1	0	0	0.0000	-1.3430	-0.0000	-0.0000;
	49	47	2e-05	0.000198	0.0142	261	261	261	1	0	1	0	0	0.0000	-1.5761	-0.0000	-0.0000;
	277	49	0.000277	0.000928	0.2066	0	0	0	1	0	1	0	0	-78.6765	-18.2715	78.6920	-4.6013;
	298	49	0.002037	0.010904	0.0187	352	352	352	1	0	1	0	0	-50.5340	-12.5321	50.5835	10.7258;
	318	49	0.000415	0.002015	0.1266	428	428	428	1	0	1	0	0	-95.0263	-6.8558	95.0600	-7.0267;
	370	49	0.000395	0.00156	0.1893	426	426	426	1	0	1	0	0	-331.8861	-59.1616	332.2880	39.7778;
	608	49	4e-05	0.000178	0.0152	0	0	0	1	0	1	0	0	138.8000	1.2744	-138.7931	-2.9306;
	836	49	0.001323	0.012444	0.0678	935	935	935	1	0	1	0	0	281.5690	28.8205	-280.6236	-27.5024;
	1227	49	0.000454	0.002133	0.2511	268	268	268	1	0	1	0	0	-116.5000	-21.2000	116.5558	-6.3905;
	1381	49	0.000119	0.000691	0.1002	387	387	387	1	0	1	0	0	-228.1847	-29.0850	228.2412	18.2959;
	1411	49	0.00083	0.005175	0.0203	323	323	323	1	0	1	0	0	-83.8157	-22.8586	83.8719	20.9600;
	277	49	0.000277	0.000928	0.2086	0	0	0	1	0	1	0	0	-78.6765	-18.3825	78.6920	-4.7123;
	836	49	0.001314	0.012115	0.0673	943	943	943	1	0	1	0	0	289.2199	29.1141	-288.2297	-27.5028;
	1379	49	5.9e-05	0.000217	0.0496	323	323	323	1	0	1	0	0	242.0000	21.5012	-241.9686	-26.8918;
	1378	49	5.9e-05	0.000217	0.0466	323	323	323	1	0	1	0	0	237.9000	17.6203	-237.8697	-22.6820;
	1169	50	0.000158	0.000948	0.002	348	348	348	1	0	1	0	0	10.0002	3.4738	-10.0000	-3.7000;
	704	51	0.001521	0.007076	0.0118	302	302	302	1	0	1	0	0	0.0000	-0.0000	0.0000	-1.3192;
	1265	51	0.002469	0.011457	0.0203	315	315	315	1	0	1	0	0	-55.8897	6.3808	55.9600	-8.3229;
	404	52	0.001442	0.009699	0.0172	566	566	566	1	0	1	0	0	29.7394	7.4439	-29.7267	-9.2260;
	427	52	0.001422	0.009541	0.0172	566	566	566	1	0	1	0	0	44.9039	17.1100	-44.8733	-18.7740;
	459	53	0.004681	0.028227	0.0516	440	440	440	1	0	1	0	0	-177.9720	-17.4045	179.3080	19.6266;
	765	53	0.001185	0.008	0.0152	575	575	575	1	0	1	0	0	52.5437	10.4104	-52.5139	-11.9507;
	1529	53	0.005333	0.02722	0.0491	440	440	440	1	0	1	0	0	-75.2112	-13.4242	75.4835	9.2303;
	766	54	0.000145	0.001911	0.0661	2487	2487	2487	1	0	1	0	0	-168.6445	-256.5098	168.7583	250.2058;
	1417	54	0.000253	0.003323	0.1148	2487	2487	2487	1	0	1	0	0	532.4958	327.7932	-531.6688	-330.6842;
	1101	56	0.000494	0.002252	0.004	406	406	406	1	0	1	0	0	14.7009	-1.4490	-14.7000	1.0000;
	1101	55	0.000494	0.002252	0.004	406	406	406	1	0	1	0	0	31.0047	10.5683	-31.0000	-11.0000;
	97	1827	0.004563	0.030696	0.0557	541	541	541	1	0	1	0	0	293.7277	-18.0419	-290.2127	35.4619;
	320	1827	0.009857	0.04478	0.077	405	405	405	1	0	1	0	0	-137.1229	29.1256	138.8889	-29.6667;
	813	1827	0.017106	0.078321	0.1387	362	362	362	1	0	1	0	0	119.7724	-16.7060	-117.5919	11.1259;
	1287	1827	0.010272	0.048691	0.0866	354	354	354	1	0	1	0	0	-67.2400	21.1950	67.7156	-28.6211;
	461	57	0.012978	0.059338	0.1002	409	409	409	1	0	1	0	0	-16.9915	-3.3267	17.0244	-8.2071;
	827	57	0.01197	0.056632	0.0942	262	262	262	1	0	1	0	0	74.5983	-13.5174	-74.0244	5.2071;
	1429	58	0.000578	0.001156	0.0004	0	0	0	1	0	1	0	0	-1.2100	-2.0489	1.2100	2.0000;
	1090	60	0.000316	0.001679	0.0192	0	0	0	1	0	1	0	0	55.7129	39.4385	-55.7000	-41.6000;
	1090	59	0.000316	0.001679	0.0192	0	0	0	1	0	1	0	0	55.4093	17.5186	-55.4000	-19.7000;
	713	61	0.000277	0.000573	0.0334	0	0	0	1	0	1	0	0	-92.7893	1.3434	92.8100	-5.1586;
	1032	62	0.001055	0.004836	0.0081	432	432	432	1	0	1	0	0	16.4027	4.0072	-16.4000	-4.9000;
	998	63	0.002114	0.008553	0.0152	346	346	346	1	0	1	0	0	-23.3885	-9.9846	23.4000	8.2656;
	342	65	0.000158	0.000652	0.084	0	0	0	1	0	1	0	0	54.7042	3.8814	-54.7000	-13.6000;
	894	64	0.000198	0.000731	0.0942	385	385	385	1	0	1	0	0	29.7016	1.1311	-29.7000	-12.0000;
	1265	66	0.00324	0.012616	0.0225	302	302	302	1	0	1	0	0	-21.8850	-7.5577	21.9000	5.1000;
	1397	67	0.007522	0.029736	0.0496	303	303	303	1	0	1	0	0	57.7216	-6.6798	-57.5053	1.7785;
	1543	67	0.006809	0.03043	0.0521	380	380	380	1	0	1	0	0	-28.2574	-6.5219	28.3053	0.7215;
	404	69	0.002153	0.014736	0.0273	565	565	565	1	0	1	0	0	-142.2272	-26.3734	142.6402	26.2140;
	469	68	0.000581	0.003838	0.0071	507	507	507	1	0	1	0	0	-61.3000	-19.4000	61.3212	18.7361;
	791	68	0.001857	0.020306	0.0557	566	566	566	1	0	1	0	0	53.4749	-11.2730	-53.4269	5.4908;
	1348	69	0.002331	0.015526	0.0278	549	549	549	1	0	1	0	0	-146.5413	-30.5447	147.0210	30.7027;
	1480	68	0.001345	0.008968	0.0162	566	566	566	1	0	1	0	0	-264.2376	-49.3816	265.1069	53.3551;
	470	68	0.000573	0.003911	0.0071	415	415	415	1	0	1	0	0	-39.2000	-10.6000	39.2083	9.8527;
	640	68	0.001896	0.012701	0.0233	501	501	501	1	0	1	0	0	-260.2032	-47.3520	261.3954	52.7249;
	556	70	0.000602	0.006717	0.1357	1725	1725	1725	1	0	1	0	0	-561.1166	-14.4167	562.7749	17.3481;
	792	70	0.00063	0.007098	0.1588	1916	1916	1916	1	0	1	0	0	308.6063	23.0533	-308.0834	-35.5200;
	1421	70	0.000367	0.004631	0.1126	2275	2275	2275	1	0	1	0	0	184.7099	-32.6420	-184.5989	21.0772;
	792	70	0.000472	0.006201	0.2137	2487	2487	2487	1	0	1	0	0	353.1212	29.0110	-352.6069	-46.9582;
	1416	70	0.001504	0.019298	0.4577	2275	2275	2275	1	0	1	0	0	722.9227	112.0138	-716.1890	-79.6887;
	203	72	0.000158	0.001106	0.1357	461	461	461	1	0	1	0	0	206.7035	-56.7181	-206.6409	41.7097;
	375	71	0.000219	0.00193	0.1954	407	407	407	1	0	1	0	0	-226.5527	-53.3611	226.6593	32.9301;
	403	71	0.000158	0.000909	0.1316	428	428	428	1	0	1	0	0	15.2293	-6.1027	-15.2289	-8.3058;
	982	71	0.000411	0.00356	0.3564	416	416	416	1	0	1	0	0	288.0425	2.5344	-287.7303	-38.9243;
	1104	72	0.000158	0.001264	0.1286	416	416	416	1	0	1	0	0	-177.5949	32.4329	177.6409	-46.7097;
	842	73	0.000198	0.001383	0.003	420	420	420	1	0	1	0	0	-61.9731	5.8823	61.9800	-6.1682;
	842	74	0.000217	0.001402	0.003	420	420	420	1	0	1	0	0	-61.9724	5.8887	61.9800	-6.1739;
	387	75	0.001304	0.008691	0.0152	525	525	525	1	0	1	0	0	-147.4331	19.8308	147.6941	-19.7741;
	842	75	0.000691	0.004662	0.0091	541	541	541	1	0	1	0	0	330.7747	15.0071	-330.0941	-11.4259;
	78	76	9.9e-05	0.000415	0.0456	434	434	434	1	0	1	0	0	-294.8582	-20.7090	294.9325	15.7228;
	300	77	1e-06	0.000104	0.078	1063	1063	1063	1	0	1	0	0	873.0000	147.3482	-872.9935	-156.0546;
	436	77	0.000353	0.004584	0.1184	2357	2357	2357	1	0	1	0	0	-684.6284	-145.1388	686.0818	149.8782;
	705	77	0.000699	0.009179	0.3177	2487	2487	2487	1	0	1	0	0	-486.3696	-75.7386	487.7852	56.4082;
	436	77	0.000353	0.004584	0.1184	2357	2357	2357	1	0	1	0	0	-684.6284	-145.1388	686.0818	149.8782;
	705	77	0.000734	0.009245	0.3148	2487	2487	2487	1	0	1	0	0	-482.9560	-73.5902	484.4206	54.4640;
	302	77	7e-06	0.000104	0.0029	1382	1382	1382	1	0	1	0	0	884.0000	131.3482	-883.9535	-131.0069;
	301	77	7e-06	0.000104	0.0029	1382	1382	1382	1	0	1	0	0	883.0000	171.2498	-882.9529	-170.8996;
	435	78	0.002556	0.017333	0.0805	418	418	418	1	0	1	0	0	-55.9050	-20.2477	55.9797	11.4378;
	1040	78	0.008849	0.062617	0.1144	471	471	471	1	0	1	0	0	-121.6298	3.2523	122.7785	-8.3287;
	1431	79	2.2e-05	9.9e-05	0.001	405	405	405	1	0	1	0	0	-7.4000	0.7841	7.4000	-0.9000;
	1430	80	2e-05	9.9e-05	0	0	0	0	1	0	1	0	0	14.0001	12.6003	-14.0000	-12.6000;
	745	81	0.000573	0.002588	0.0051	388	388	388	1	0	1	0	0	48.7116	2.3555	-48.7000	-2.9000;
	1432	82	2e-05	0.000198	0.001	566	566	566	1	0	1	0	0	21.3901	3.1907	-21.3900	-3.3000;
	626	83	0.000138	0.00077	0.001	272	272	272	1	0	1	0	0	61.9051	19.6134	-61.9000	-19.7000;
	181	84	0.001171	0.007842	0.0166	296	296	296	1	0	1	0	0	-167.8969	-33.7114	168.2197	34.1030;
	855	84	0.002212	0.014979	0.0388	401	401	401	1	0	1	0	0	328.5241	28.3337	-326.3197	-17.6030;
	1186	85	0.000691	0.002588	0.1691	0	0	0	1	0	1	0	0	-2.9000	2.7000	2.9009	-20.4670;
	1187	85	0.000691	0.002588	0.1509	0	0	0	1	0	1	0	0	-1.4000	2.8000	1.4008	-18.6549;
	553	86	0.001627	0.014855	0.3899	1717	1717	1717	1	0	1	0	0	189.3452	13.9918	-188.8175	-53.5430;
	553	86	0.001676	0.013899	0.4216	1711	1711	1711	1	0	1	0	0	202.5261	12.4175	-201.9067	-55.2575;
	519	87	0.003081	0.020286	0.0365	420	420	420	1	0	1	0	0	-82.4238	24.8536	82.6381	-27.3765;
	870	87	0.00241	0.01603	0.0294	440	440	440	1	0	1	0	0	192.0634	19.3304	-191.2381	-17.0235;
	1300	88	0.000176	0.001385	0.1521	378	378	378	1	0	1	0	0	-70.7000	4.2000	70.7082	-21.0737;
	1351	88	0.001817	0.012642	0.0233	440	440	440	1	0	1	0	0	105.3204	6.7812	-105.1393	-8.1222;
	1351	88	0.001865	0.012502	0.0229	502	502	502	1	0	1	0	0	106.4587	6.3200	-106.2689	-7.6041;
	283	89	0.007422	0.024489	0.0081	0	0	0	1	0	1	0	0	-18.9943	0.9265	19.0191	-1.7232;
	467	89	0.028356	0.083956	0.0274	0	0	0	1	0	1	0	0	56.7886	2.5370	-55.9698	-3.1380;
	729	89	0.016844	0.058489	0.0198	0	0	0	1	0	1	0	0	-83.0631	-7.5258	84.1790	9.2887;
	1335	89	0.009067	0.028133	0.0095	0	0	0	1	0	1	0	0	23.3000	-0.5350	-23.2548	-0.3584;
	1433	90	0.000593	0.00401	0.0071	471	471	471	1	0	1	0	0	56.6209	22.5892	-56.6000	-23.2000;
	376	91	0.010351	0.032395	0.0562	0	0	0	1	0	1	0	0	119.9812	-29.5900	-118.6009	27.5663;
...
];

%%-----  OPF Data  -----%%
%% generator cost data
%	1	startup	shutdown	n	x1	y1	...	xn	yn
%	2	startup	shutdown	n	c(n-1)	...	c0
mpc.gencost = [
	2	0	0	3	0	1	0;
	2	0	0	3	0	1	0;
	2	0	0	3	0	1	0;
	2	0	0	3	0	1	0;
	2	0	0	3	0	1	0;
	2	0	0	3	0	1	0;
	2	0	0	3	0	1	0;
	2	0	0	3	0	1	0;
	2	0	0	3	0	1	0;
	2	0	0	3	0	1	0;
	2	0	0	3	0	1	0;
	2	0	0	3	0	1	0;
	2	0	0	3	0	2	0;
	2	0	0	3	0	2	0;
	2	0	0	3	0	1	0;
	2	0	0	3	0	1	0;
	2	0	0	3	0	1	0;
	2	0	0	3	0	1	0;
	2	0	0	3	0	1	0;
	2	0	0	3	0	1	0;
	2	0	0	3	0	1	0;
	2	0	0	3	0	2	0;
	2	0	0	3	0	2	0;
	2	0	0	3	0	2	0;
	2	0	0	3	0	2	0;
	2	0	0	3	0	1	0;
	2	0	0	3	0	1	0;
	2	0	0	3	0	1	0;
	2	0	0	3	0	1	0;
	2	0	0	3	0	1	0;
	2	0	0	3	0	1	0;
	2	0	0	3	0	1	0;
	2	0	0	3	0	1	0;
	2	0	0	3	0	1	0;
	2	0	0	3	0	2	0;
	2	0	0	3	0	1	0;
	2	0	0	3	0	1	0;
	2	0	0	3	0	1	0;
	2	0	0	3	0	1	0;
	2	0	0	3	0	1	0;
	2	0	0	3	0	1	0;
	2	0	0	3	0	1	0;
	2	0	0	3	0	1	0;
	2	0	0	3	0	1	0;
	2	0	0	3	0	2	0;
	2	0	0	3	0	1	0;
	2	0	0	3	0	1	0;
	2	0	0	3	0	2	0;
	2	0	0	3	0	1	0;
	2	0	0	3	0	1	0;
	2	0	0	3	0	1	0;
	2	0	0	3	0	1	0;
	2	0	0	3	0	1	0;
	2	0	0	3	0	1	0;
	2	0	0	3	0	1	0;
	2	0	0	3	0	1	0;
	2	0	0	3	0	1	0;
	2	0	0	3	0	1	0;
	2	0	0	3	0	1	0;
	2	0	0	3	0	1	0;
	2	0	0	3	0	1	0;
	2	0	0	3	0	1	0;
	2	0	0	3	0	1	0;
	2	0	0	3	0	1	0;
	2	0	0	3	0	1	0;
	2	0	0	3	0	1	0;
	2	0	0	3	0	1	0;
	2	0	0	3	0	1	0;
	2	0	0	3	0	1	0;
	2	0	0	3	0	1	0;
	2	0	0	3	0	1	0;
	2	0	0	3	0	1	0;
	2	0	0	3	0	1	0;
	2	0	0	3	0	1	0;
	2	0	0	3	0	1	0;
	2	0	0	3	0	1	0;
	2	0	0	3	0	1	0;
	2	0	0	3	0	1	0;
	2	0	0	3	0	1	0;
	2	0	0	3	0	1	0;
	2	0	0	3	0	1	0;
	2	0	0	3	0	1	0;
	2	0	0	3	0	1	0;
	2	0	0	3	0	1	0;
	2	0	0	3	0	1	0;
	2	0	0	3	0	1	0;
	2	0	0	3	0	1	0;
	2	0	0	3	0	1	0;
	2	0	0	3	0	1	0;
	2	0	0	3	0	1	0;
	2	0	0	3	0	1	0;
	2	0	0	3	0	1	0;
	2	0	0	3	0	1	0;
	2	0	0	3	0	1	0;
	2	0	0	3	0	1	0;
	2	0	0	3	0	1	0;
	2	0	0	3	0	1	0;
	2	0	0	3	0	1	0;
	2	0	0	3	0	1	0;
	2	0	0	3	0	1	0;
	2	0	0	3	0	1	0;
	2	0	0	3	0	1	0;
	2	0	0	3	0	1	0;
	2	0	0	3	0	1	0;
	2	0	0	3	0	1	0;
	2	0	0	3	0	1	0;
	2	0	0	3	0	1	0;
	2	0	0	3	0	1	0;
	2	0	0	3	0	1	0;
	2	0	0	3	0	1	0;
	2	0	0	3	0	1	0;
	2	0	0	3	0	1	0;
	2	0	0	3	0	1	0;
	2	0	0	3	0	1	0;
	2	0	0	3	0	1	0;
	2	0	0	3	0	1	0;
	2	0	0	3	0	1	0;
	2	0	0	3	0	1	0;
	2	0	0	3	0	1	0;
	2	0	0	3	0	1	0;
	2	0	0	3	0	1	0;
	2	0	0	3	0	1	0;
	2	0	0	3	0	1	0;
	2	0	0	3	0	1	0;
	2	0	0	3	0	2	0;
	2	0	0	3	0	2	0;
	2	0	0	3	0	1	0;
	2	0	0	3	0	1	0;
	2	0	0	3	0	1	0;
	2	0	0	3	0	1	0;
	2	0	0	3	0	1	0;
	2	0	0	3	0	1	0;
	2	0	0	3	0	1	0;
	2	0	0	3	0	1	0;
	2	0	0	3	0	1	0;
	2	0	0	3	0	1	0;
	2	0	0	3	0	1	0;
	2	0	0	3	0	1	0;
	2	0	0	3	0	1	0;
	2	0	0	3	0	1	0;
	2	0	0	3	0	1	0;
	2	0	0	3	0	1	0;
	2	0	0	3	0	1	0;
	2	0	0	3	0	1	0;
	2	0	0	3	0	1	0;
	2	0	0	3	0	1	0;
	2	0	0	3	0	2	0;
	2	0	0	3	0	2	0;
	2	0	0	3	0	1	0;
	2	0	0	3	0	1	0;
	2	0	0	3	0	1	0;
	2	0	0	3	0	1	0;
	2	0	0	3	0	1	0;
	2	0	0	3	0	1	0;
	2	0	0	3	0	1	0;
	2	0	0	3	0	1	0;
	2	0	0	3	0	1	0;
	2	0	0	3	0	1	0;
	2	0	0	3	0	1	0;
	2	0	0	3	0	1	0;
	2	0	0	3	0	1	0;
	2	0	0	3	0	1	0;
	2	0	0	3	0	1	0;
	2	0	0	3	0	1	0;
	2	0	0	3	0	1	0;
	2	0	0	3	0	1	0;
	2	0	0	3	0	1	0;
	2	0	0	3	0	1	0;
	2	0	0	3	0	1	0;
	2	0	0	3	0	1	0;
	2	0	0	3	0	1	0;
	2	0	0	3	0	1	0;
	2	0	0	3	0	1	0;
	2	0	0	3	0	1	0;
	2	0	0	3	0	1	0;
	2	0	0	3	0	1	0;
	2	0	0	3	0	1	0;
	2	0	0	3	0	1	0;
	2	0	0	3	0	1	0;
	2	0	0	3	0	1	0;
	2	0	0	3	0	1	0;
	2	0	0	3	0	1	0;
	2	0	0	3	0	1	0;
	2	0	0	3	0	1	0;
	2	0	0	3	0	1	0;
	2	0	0	3	0	1	0;
	2	0	0	3	0	1	0;
	2	0	0	3	0	1	0;
	2	0	0	3	0	1	0;
	2	0	0	3	0	1	0;
	2	0	0	3	0	1	0;
	2	0	0	3	0	1	0;
	2	0	0	3	0	1	0;
	2	0	0	3	0	1	0;
	2	0	0	3	0	1	0;
	2	0	0	3	0	1	0;
	2	0	0	3	0	2	0;
	2	0	0	3	0	2	0;
	2	0	0	3	0	1	0;
	2	0	0	3	0	1	0;
...
];
